/*--------------------------------*- C++ -*----------------------------------*\
  =========                 |
  \\      /  F ield         | OpenFOAM: The Open Source CFD Toolbox
   \\    /   O peration     | Website:  https://openfoam.org
    \\  /    A nd           | Version:  10
     \\/     M anipulation  |
\*---------------------------------------------------------------------------*/
FoamFile
{
    format      ascii;
    class       dictionary;
    object      fvSolution;
}
// * * * * * * * * * * * * * * * * * * * * * * * * * * * * * * * * * * * * * //

solvers
{
    p
    {
        solver          PCG;
        preconditioner
        {
            preconditioner  GAMG;
            tolerance       1e-07;
            relTol          0.01;
            smoother        symGaussSeidel;
            nPreSweeps      0;
            nPostSweeps     2;
            nFinestSweeps   2;
            cacheAgglomeration true;
            nCellsInCoarsestLevel 400;
            agglomerator    faceAreaPair;
            processorAgglomerator   procFaces;
            nAgglomeratingCells     10;
            mergeLevels             1;
        }
        tolerance       1e-07;
        relTol          0.01;
    }

    Phi
    {
        $p;
    }

    U
    {
        solver          PBiCGStab;
        preconditioner  DILU;
        tolerance       1e-8;
        relTol          0.01;
    }

    k
    {
        solver          PBiCGStab;
        preconditioner  DILU;
        tolerance       1e-09;
        relTol          0.01;
    }

    omega
    {
        solver          PBiCGStab;
        preconditioner  DILU;
        tolerance       1e-09;
        relTol          0.01;
    }
}

SIMPLE
{
    nNonOrthogonalCorrectors 2;
    consistent no;
}

potentialFlow
{
    nNonOrthogonalCorrectors 10;
}

relaxationFactors
{
    fields
    {
        p           0.05;
        U           0.1;
        k               0.9;
        omega           0.9;
        // "(CO|O2|CO2)" 	 0.0001;
    }
    equations
    {
        U               0.9;
        p               0.95;
        k               0.8;
        omega           0.6;
    }
}

cache
{
    grad(U);
}

// ************************************************************************* //
