/*--------------------------------*- C++ -*----------------------------------*\
  =========                 |
  \\      /  F ield         | OpenFOAM: The Open Source CFD Toolbox
   \\    /   O peration     | Website:  https://openfoam.org
    \\  /    A nd           | Version:  10
     \\/     M anipulation  |
\*---------------------------------------------------------------------------*/
FoamFile
{
    format      ascii;
    class       dictionary;
    object      setFieldsDict;
}

// * * * * * * * * * * * * * * * * * * * * * * * * * * * * * * * * * * * * * //
// defaultFieldValues
// (
//     volScalarFieldValue T 300
// );

regions
(
    // Set patch values (using ==)
    boxToFace
    {
        box (50 124 -0.5) (56 130 0.5);

        fieldValues
        (
            volScalarFieldValue yPol 0.1
        );
    }
    boxToFace
    {
        box (100 248 -0.5) (106 254 0.5);

        fieldValues
        (
            volScalarFieldValue yPol 0.1
        );
    }
);

// ************************************************************************* //